<?xml version="1.0" encoding="UTF-8"?>
<routes xmlns:xsi="http://www.w3.org/2001/XMLSchema-instance" xsi:noNamespaceSchemaLocation="http://sumo.dlr.de/xsd/routes_file.xsd">
    <!-- Vehicle types -->
    <vType id="car" accel="2.6" decel="4.5" sigma="0.2" length="5.0" maxSpeed="15" color="blue"/>
    <vType id="bus" accel="1.2" decel="2.5" sigma="0.1" length="12.0" maxSpeed="12" color="green"/>

    <!-- Routes -->
    <route id="route1" edges="1to2 2to1"/>
    <route id="route2" edges="3to4 4to3"/>
    <route id="route3" edges="5to6 6to5"/>

    <!-- Flow of vehicles (continuous generation) -->
    <flow id="flow1" type="car" from="1to2" to="2to1" period="5" begin="0" end="1000" probability="0.8"/>
    <flow id="flow2" type="bus" from="3to4" to="4to3" period="10" begin="0" end="1000" probability="0.6"/>
    <flow id="flow3" type="car" from="5to6" to="6to5" period="4" begin="0" end="1000" probability="0.9"/>
</routes>
